/*--------------------------------*- C++ -*----------------------------------*\
| =========                 |                                                 |
| \\      /  F ield         | OpenFOAM: The Open Source CFD Toolbox           |
|  \\    /   O peration     | Version:  v2006                                 |
|   \\  /    A nd           | Website:  www.openfoam.com                      |
|    \\/     M anipulation  |                                                 |
\*---------------------------------------------------------------------------*/
FoamFile
{
    version     2.0;
    format      ascii;
    class       volVectorField;
    object      U;
}
// * * * * * * * * * * * * * * * * * * * * * * * * * * * * * * * * * * * * * //

#include        "include/freestreamConditions"

dimensions      [0 1 -1 0 0 0 0];

internalField   uniform $U;

boundaryField
{
    "(inlet|outlet)"
    {
        type            characteristicFarfieldVelocity;
        #include        "include/freestreamConditions"
        value           $internalField;
    }

    airfoil
    {
         type            noSlip;
    }

    front
    {
        type            empty;
    }

    back
    {
        type            empty;
    }
    
    processor
    {
        type  processor;
        value $internalField;
    }
}

// ************************************************************************* //
